CargasMT.dss
New "Load.MT_72573_M1" bus1="725731.1.2.3.4" phases=3 conn=Delta model=2 kv=23.100000000 kw = 0.562728 pf=0.92 status=variable vmaxpu=1.5 vminpu=0.5 daily="IN"  
New "Load.MT_72573_M2" bus1="725731.1.2.3.4" phases=3 conn=Delta model=3 kv=23.100000000 kw = 0.562728 pf=0.92 status=variable vmaxpu=1.5 vminpu=0.5 daily="IN" 
New "Load.MT_61843_M1" bus1="618431.1.2.3.4" phases=3 conn=Delta model=2 kv=23.100000000 kw = 75.232278 pf=0.92 status=variable vmaxpu=1.5 vminpu=0.5 daily="IN"  
New "Load.MT_61843_M2" bus1="618431.1.2.3.4" phases=3 conn=Delta model=3 kv=23.100000000 kw = 75.232278 pf=0.92 status=variable vmaxpu=1.5 vminpu=0.5 daily="IN" 
New "Load.MT_16415_M1" bus1="164151.1.2.3.4" phases=3 conn=Delta model=2 kv=23.100000000 kw = 8.064525 pf=0.92 status=variable vmaxpu=1.5 vminpu=0.5 daily="IN"  
New "Load.MT_16415_M2" bus1="164151.1.2.3.4" phases=3 conn=Delta model=3 kv=23.100000000 kw = 8.064525 pf=0.92 status=variable vmaxpu=1.5 vminpu=0.5 daily="IN" 
New "Load.MT_64243_M1" bus1="358691.1.2.3.4" phases=3 conn=Delta model=2 kv=23.100000000 kw = 32.676458 pf=0.92 status=variable vmaxpu=1.5 vminpu=0.5 daily="IN"  
New "Load.MT_64243_M2" bus1="358691.1.2.3.4" phases=3 conn=Delta model=3 kv=23.100000000 kw = 32.676458 pf=0.92 status=variable vmaxpu=1.5 vminpu=0.5 daily="IN" 
New "Load.MT_80950_M1" bus1="809501.1.2.3.4" phases=3 conn=Delta model=2 kv=23.100000000 kw = 10.368083 pf=0.92 status=variable vmaxpu=1.5 vminpu=0.5 daily="IN"  
New "Load.MT_80950_M2" bus1="809501.1.2.3.4" phases=3 conn=Delta model=3 kv=23.100000000 kw = 10.368083 pf=0.92 status=variable vmaxpu=1.5 vminpu=0.5 daily="IN" 
New "Load.MT_6072_M1" bus1="60721.1.2.3.4" phases=3 conn=Delta model=2 kv=23.100000000 kw = 44.951798 pf=0.92 status=variable vmaxpu=1.5 vminpu=0.5 daily="IN"  
New "Load.MT_6072_M2" bus1="60721.1.2.3.4" phases=3 conn=Delta model=3 kv=23.100000000 kw = 44.951798 pf=0.92 status=variable vmaxpu=1.5 vminpu=0.5 daily="IN" 
New "Load.MT_82264_M1" bus1="822641.1.2.3.4" phases=3 conn=Delta model=2 kv=23.100000000 kw = 33.445671 pf=0.92 status=variable vmaxpu=1.5 vminpu=0.5 daily="IN"  
New "Load.MT_82264_M2" bus1="822641.1.2.3.4" phases=3 conn=Delta model=3 kv=23.100000000 kw = 33.445671 pf=0.92 status=variable vmaxpu=1.5 vminpu=0.5 daily="IN" 
New "Load.MT_71379_M1" bus1="713791.1.2.3.4" phases=3 conn=Delta model=2 kv=23.100000000 kw = 0.649302 pf=0.92 status=variable vmaxpu=1.5 vminpu=0.5 daily="IN"  
New "Load.MT_71379_M2" bus1="713791.1.2.3.4" phases=3 conn=Delta model=3 kv=23.100000000 kw = 0.649302 pf=0.92 status=variable vmaxpu=1.5 vminpu=0.5 daily="IN" 
New "Load.MT_82237_M1" bus1="822371.1.2.3.4" phases=3 conn=Delta model=2 kv=23.100000000 kw = 0.953665 pf=0.92 status=variable vmaxpu=1.5 vminpu=0.5 daily="IN"  
New "Load.MT_82237_M2" bus1="822371.1.2.3.4" phases=3 conn=Delta model=3 kv=23.100000000 kw = 0.953665 pf=0.92 status=variable vmaxpu=1.5 vminpu=0.5 daily="IN" 
New "Load.MT_81511_M1" bus1="815111.1.2.3.4" phases=3 conn=Delta model=2 kv=23.100000000 kw = 13.754321 pf=0.92 status=variable vmaxpu=1.5 vminpu=0.5 daily="IN"  
New "Load.MT_81511_M2" bus1="815111.1.2.3.4" phases=3 conn=Delta model=3 kv=23.100000000 kw = 13.754321 pf=0.92 status=variable vmaxpu=1.5 vminpu=0.5 daily="IN" 
New "Load.MT_68689_M1" bus1="686891.1.2.3.4" phases=3 conn=Delta model=2 kv=23.100000000 kw = 35.103961 pf=0.92 status=variable vmaxpu=1.5 vminpu=0.5 daily="IN"  
New "Load.MT_68689_M2" bus1="686891.1.2.3.4" phases=3 conn=Delta model=3 kv=23.100000000 kw = 35.103961 pf=0.92 status=variable vmaxpu=1.5 vminpu=0.5 daily="IN" 
New "Load.MT_70360_M1" bus1="703601.1.2.3.4" phases=3 conn=Delta model=2 kv=23.100000000 kw = 1.550595 pf=0.92 status=variable vmaxpu=1.5 vminpu=0.5 daily="IN"  
New "Load.MT_70360_M2" bus1="703601.1.2.3.4" phases=3 conn=Delta model=3 kv=23.100000000 kw = 1.550595 pf=0.92 status=variable vmaxpu=1.5 vminpu=0.5 daily="IN" 
New "Load.MT_81122_M1" bus1="811221.1.2.3.4" phases=3 conn=Delta model=2 kv=23.100000000 kw = 8.253745 pf=0.92 status=variable vmaxpu=1.5 vminpu=0.5 daily="IN"  
New "Load.MT_81122_M2" bus1="811221.1.2.3.4" phases=3 conn=Delta model=3 kv=23.100000000 kw = 8.253745 pf=0.92 status=variable vmaxpu=1.5 vminpu=0.5 daily="IN" 
New "Load.MT_33771_M1" bus1="337711.1.2.3.4" phases=3 conn=Delta model=2 kv=23.100000000 kw = 56.801675 pf=0.92 status=variable vmaxpu=1.5 vminpu=0.5 daily="IN"  
New "Load.MT_33771_M2" bus1="337711.1.2.3.4" phases=3 conn=Delta model=3 kv=23.100000000 kw = 56.801675 pf=0.92 status=variable vmaxpu=1.5 vminpu=0.5 daily="IN" 
New "Load.MT_82061_M1" bus1="820611.1.2.3.4" phases=3 conn=Delta model=2 kv=23.100000000 kw = 52.334897 pf=0.92 status=variable vmaxpu=1.5 vminpu=0.5 daily="IN"  
New "Load.MT_82061_M2" bus1="820611.1.2.3.4" phases=3 conn=Delta model=3 kv=23.100000000 kw = 52.334897 pf=0.92 status=variable vmaxpu=1.5 vminpu=0.5 daily="IN" 
New "Load.MT_30219_M1" bus1="302191.1.2.3.4" phases=3 conn=Delta model=2 kv=23.100000000 kw = 13.043554 pf=0.92 status=variable vmaxpu=1.5 vminpu=0.5 daily="IN"  
New "Load.MT_30219_M2" bus1="302191.1.2.3.4" phases=3 conn=Delta model=3 kv=23.100000000 kw = 13.043554 pf=0.92 status=variable vmaxpu=1.5 vminpu=0.5 daily="IN" 
New "Load.MT_32084_M1" bus1="320841.1.2.3.4" phases=3 conn=Delta model=2 kv=23.100000000 kw = 96.342126 pf=0.92 status=variable vmaxpu=1.5 vminpu=0.5 daily="IN"  
New "Load.MT_32084_M2" bus1="320841.1.2.3.4" phases=3 conn=Delta model=3 kv=23.100000000 kw = 96.342126 pf=0.92 status=variable vmaxpu=1.5 vminpu=0.5 daily="IN" 
New "Load.MT_6065_M1" bus1="60651.1.2.3.4" phases=3 conn=Delta model=2 kv=23.100000000 kw = 6.223673 pf=0.92 status=variable vmaxpu=1.5 vminpu=0.5 daily="IN"  
New "Load.MT_6065_M2" bus1="60651.1.2.3.4" phases=3 conn=Delta model=3 kv=23.100000000 kw = 6.223673 pf=0.92 status=variable vmaxpu=1.5 vminpu=0.5 daily="IN" 
New "Load.MT_46150_M1" bus1="461501.1.2.3.4" phases=3 conn=Delta model=2 kv=23.100000000 kw = 19.088441 pf=0.92 status=variable vmaxpu=1.5 vminpu=0.5 daily="IN"  
New "Load.MT_46150_M2" bus1="461501.1.2.3.4" phases=3 conn=Delta model=3 kv=23.100000000 kw = 19.088441 pf=0.92 status=variable vmaxpu=1.5 vminpu=0.5 daily="IN" 
